#======================================================================

# CRYSTAL DATA

#----------------------------------------------------------------------

data_VESTA_phase_1


_pd_phase_name                         'MAPI Cubic (700 eV)			                '
_cell_length_a                         6.28880
_cell_length_b                         6.22877
_cell_length_c                         6.37409
_cell_angle_alpha                      90.00298
_cell_angle_beta                       88.74386
_cell_angle_gamma                      89.98581
_symmetry_space_group_name_H-M         'P 1'
_symmetry_Int_Tables_number            1

loop_
_symmetry_equiv_pos_as_xyz
   'x, y, z'

loop_
   _atom_site_label
   _atom_site_occupancy
   _atom_site_fract_x
   _atom_site_fract_y
   _atom_site_fract_z
   _atom_site_adp_type
   _atom_site_B_iso_or_equiv
   _atom_site_type_symbol
   C1         1.0     0.893988      0.999817      0.457831     Biso  1.000000 C
   N1         1.0     0.109074      0.000007      0.547769     Biso  1.000000 N
   H1         1.0     0.910150      0.999642      0.285777     Biso  1.000000 H
   H2         1.0     0.808676      0.144704      0.511031     Biso  1.000000 H
   H3         1.0     0.808886      0.854952      0.511301     Biso  1.000000 H
   H4         1.0     0.196269      0.135749      0.501513     Biso  1.000000 H
   H5         1.0     0.196411      0.864210      0.501782     Biso  1.000000 H
   H6         1.0     0.106340      0.000187      0.711218     Biso  1.000000 H
   Pb1        1.0     0.444884      0.499980      0.977623     Biso  1.000000 Pb
   I1         1.0     0.409487      0.499982      0.475145     Biso  1.000000 I
   I2         1.0     0.399271      0.999958      0.023664     Biso  1.000000 I
   I3         1.0     0.932343      0.499995      0.922479     Biso  1.000000 I
