#======================================================================

# CRYSTAL DATA

#----------------------------------------------------------------------

data_VESTA_phase_1


_pd_phase_name                         'MAPI Tetragonal (800 eV)			           '
_cell_length_a                         8.69526
_cell_length_b                         8.71529
_cell_length_c                         12.83474
_cell_angle_alpha                      89.62625
_cell_angle_beta                       89.49675
_cell_angle_gamma                      89.95544
_symmetry_space_group_name_H-M         'P 1'
_symmetry_Int_Tables_number            1

loop_
_symmetry_equiv_pos_as_xyz
   'x, y, z'

loop_
   _atom_site_label
   _atom_site_occupancy
   _atom_site_fract_x
   _atom_site_fract_y
   _atom_site_fract_z
   _atom_site_adp_type
   _atom_site_B_iso_or_equiv
   _atom_site_type_symbol
   C1         1.0     0.028889      0.498316      0.250011     Biso  1.000000 C
   C2         1.0     0.531322      0.044999      0.249675     Biso  1.000000 C
   C3         1.0     0.044514      0.531832      0.748937     Biso  1.000000 C
   C4         1.0     0.498468      0.029432      0.750303     Biso  1.000000 C
   N1         1.0     0.926591      0.607350      0.195325     Biso  1.000000 N
   N2         1.0     0.428627      0.934084      0.198269     Biso  1.000000 N
   N3         1.0     0.934870      0.427511      0.697795     Biso  1.000000 N
   N4         1.0     0.606721      0.925884      0.695663     Biso  1.000000 N
   H1         1.0     0.651038      0.019289      0.227602     Biso  1.000000 H
   H2         1.0     0.516462      0.034554      0.334552     Biso  1.000000 H
   H3         1.0     0.501165      0.161493      0.223504     Biso  1.000000 H
   H4         1.0     0.453377      0.820754      0.219854     Biso  1.000000 H
   H5         1.0     0.440134      0.940659      0.117586     Biso  1.000000 H
   H6         1.0     0.312688      0.954669      0.216077     Biso  1.000000 H
   H7         1.0     0.936567      0.595452      0.114920     Biso  1.000000 H
   H8         1.0     0.953006      0.721459      0.212869     Biso  1.000000 H
   H9         1.0     0.810747      0.588889      0.214753     Biso  1.000000 H
   H10        1.0     0.148541      0.521347      0.226310     Biso  1.000000 H
   H11        1.0     0.997358      0.380706      0.228312     Biso  1.000000 H
   H12        1.0     0.015176      0.513549      0.334521     Biso  1.000000 H
   H13        1.0     0.953958      0.312643      0.718385     Biso  1.000000 H
   H14        1.0     0.945278      0.434463      0.617067     Biso  1.000000 H
   H15        1.0     0.820592      0.453878      0.716847     Biso  1.000000 H
   H16        1.0     0.162112      0.499909      0.725454     Biso  1.000000 H
   H17        1.0     0.030585      0.521128      0.833868     Biso  1.000000 H
   H18        1.0     0.020385      0.650267      0.723900     Biso  1.000000 H
   H19        1.0     0.721407      0.952766      0.711765     Biso  1.000000 H
   H20        1.0     0.593071      0.933366      0.615307     Biso  1.000000 H
   H21        1.0     0.588673      0.810832      0.716517     Biso  1.000000 H
   H22        1.0     0.521116      0.148133      0.725000     Biso  1.000000 H
   H23        1.0     0.515300      0.018068      0.834771     Biso  1.000000 H
   H24        1.0     0.380163      0.997370      0.730204     Biso  1.000000 H
   Pb1        1.0     0.509286      0.516734      0.988866     Biso  1.000000 Pb
   Pb2        1.0     0.517719      0.510297      0.488850     Biso  1.000000 Pb
   Pb3        1.0     0.030196      0.012069      0.489596     Biso  1.000000 Pb
   Pb4        1.0     0.010775      0.029892      0.989478     Biso  1.000000 Pb
   I1         1.0     0.703078      0.830381      0.994907     Biso  1.000000 I
   I2         1.0     0.324408      0.209077      0.997609     Biso  1.000000 I
   I3         1.0     0.207564      0.720815      0.998622     Biso  1.000000 I
   I4         1.0     0.830325      0.343607      0.989663     Biso  1.000000 I
   I5         1.0     0.343690      0.830181      0.490048     Biso  1.000000 I
   I6         1.0     0.720806      0.208628      0.499656     Biso  1.000000 I
   I7         1.0     0.831058      0.704858      0.494891     Biso  1.000000 I
   I8         1.0     0.209145      0.325347      0.496711     Biso  1.000000 I
   I9         1.0     0.523962      0.532514      0.239892     Biso  1.000000 I
   I10        1.0     0.532714      0.523880      0.739874     Biso  1.000000 I
   I11        1.0     0.005635      0.022809      0.741702     Biso  1.000000 I
   I12        1.0     0.022736      0.005856      0.241710     Biso  1.000000 I
