#======================================================================

# CRYSTAL DATA

#----------------------------------------------------------------------

data_VESTA_phase_1


_pd_phase_name                         'H-Pb-PF6                              '
_cell_length_a                         8.11242
_cell_length_b                         8.11242
_cell_length_c                         8.11242
_cell_angle_alpha                      90
_cell_angle_beta                       90
_cell_angle_gamma                      90
_symmetry_space_group_name_H-M         'P 1'
_symmetry_Int_Tables_number            1

loop_
_symmetry_equiv_pos_as_xyz
   'x, y, z'

loop_
   _atom_site_label
   _atom_site_occupancy
   _atom_site_fract_x
   _atom_site_fract_y
   _atom_site_fract_z
   _atom_site_adp_type
   _atom_site_B_iso_or_equiv
   _atom_site_type_symbol
   Pb1        1.0     0.000000      0.000000      0.000000     Biso  1.000000 Pb
   Cs1        1.0     0.500000      0.500000      0.500000     Biso  1.000000 Cs
   P1         1.0     0.500000      0.000000      0.000000     Biso  1.000000 P
   P2         1.0     0.000000      0.000000      0.500000     Biso  1.000000 P
   P3         1.0     0.000000      0.500000      0.000000     Biso  1.000000 P
   F1         1.0     0.293738      0.000000      0.000000     Biso  1.000000 F
   F2         1.0     0.000000      0.293738      0.000000     Biso  1.000000 F
   F3         1.0     0.000000      0.000000      0.293738     Biso  1.000000 F
   F4         1.0     0.706264      0.000000      0.000000     Biso  1.000000 F
   F5         1.0     0.000000      0.706264      0.000000     Biso  1.000000 F
   F6         1.0     0.000000      0.000000      0.706264     Biso  1.000000 F
   F7         1.0     0.500000      0.198323      0.000000     Biso  1.000000 F
   F8         1.0     0.500000      0.801677      0.000000     Biso  1.000000 F
   F9         1.0     0.000000      0.500000      0.198323     Biso  1.000000 F
   F10        1.0     0.000000      0.500000      0.801677     Biso  1.000000 F
   F11        1.0     0.000000      0.198323      0.500000     Biso  1.000000 F
   F12        1.0     0.000000      0.801677      0.500000     Biso  1.000000 F
   F13        1.0     0.500000      0.000000      0.198323     Biso  1.000000 F
   F14        1.0     0.500000      0.000000      0.801677     Biso  1.000000 F
   F15        1.0     0.198323      0.500000      0.000000     Biso  1.000000 F
   F16        1.0     0.801677      0.500000      0.000000     Biso  1.000000 F
   F17        1.0     0.198323      0.000000      0.500000     Biso  1.000000 F
   F18        1.0     0.801677      0.000000      0.500000     Biso  1.000000 F
