#======================================================================

# CRYSTAL DATA

#----------------------------------------------------------------------

data_VESTA_phase_1


_chemical_name_common                  ''
_cell_length_a                         8.77503
_cell_length_b                         12.23595
_cell_length_c                         8.36209
_cell_angle_alpha                      90
_cell_angle_beta                       90
_cell_angle_gamma                      90
_space_group_name_H-M_alt              'P 1'
_space_group_IT_number                 1

loop_
_space_group_symop_operation_xyz
   'x, y, z'

loop_
   _atom_site_label
   _atom_site_occupancy
   _atom_site_fract_x
   _atom_site_fract_y
   _atom_site_fract_z
   _atom_site_adp_type
   _atom_site_B_iso_or_equiv
   _atom_site_type_symbol
   Cs1        1.0     0.067996      0.250000      0.975854     Biso  1.000000 Cs
   Cs2        1.0     0.932004      0.750000      0.024146     Biso  1.000000 Cs
   Cs3        1.0     0.432004      0.750000      0.475854     Biso  1.000000 Cs
   Cs4        1.0     0.567996      0.250000      0.524146     Biso  1.000000 Cs
   I1         1.0     0.202849      0.530827      0.198776     Biso  1.000000 I
   I2         1.0     0.797151      0.469173      0.801224     Biso  1.000000 I
   I3         1.0     0.297151      0.469173      0.698776     Biso  1.000000 I
   I4         1.0     0.702849      0.530827      0.301224     Biso  1.000000 I
   I5         1.0     0.797151      0.030827      0.801224     Biso  1.000000 I
   I6         1.0     0.202849      0.969173      0.198776     Biso  1.000000 I
   I7         1.0     0.702849      0.969173      0.301224     Biso  1.000000 I
   I8         1.0     0.297151      0.030827      0.698776     Biso  1.000000 I
   I9         1.0     0.499023      0.250000      0.059752     Biso  1.000000 I
   I10        1.0     0.500977      0.750000      0.940248     Biso  1.000000 I
   I11        1.0     0.000977      0.750000      0.559752     Biso  1.000000 I
   I12        1.0    -0.000977      0.250000      0.440248     Biso  1.000000 I
   Sn1        1.0     0.500000      0.500000      0.000000     Biso  1.000000 Sn
   Sn2        1.0     0.000000      0.500000      0.500000     Biso  1.000000 Sn
   Sn3        1.0     0.500000      0.000000      0.000000     Biso  1.000000 Sn
   Sn4        1.0     0.000000      0.000000      0.500000     Biso  1.000000 Sn
