#======================================================================

# CRYSTAL DATA

#----------------------------------------------------------------------

data_VESTA_phase_1


_pd_phase_name                         'FAPI				                              '
_cell_length_a                         8.99624
_cell_length_b                         8.99624
_cell_length_c                         12.72260
_cell_angle_alpha                      90
_cell_angle_beta                       90
_cell_angle_gamma                      90
_symmetry_space_group_name_H-M         'P 1'
_symmetry_Int_Tables_number            1

loop_
_symmetry_equiv_pos_as_xyz
   'x, y, z'

loop_
   _atom_site_label
   _atom_site_occupancy
   _atom_site_fract_x
   _atom_site_fract_y
   _atom_site_fract_z
   _atom_site_adp_type
   _atom_site_B_iso_or_equiv
   _atom_site_type_symbol
   C1         1.0     0.774601      0.274602      0.201172     Biso  1.000000 C
   C2         1.0     0.271102      0.771110      0.299656     Biso  1.000000 C
   C3         1.0     0.774601      0.274602      0.798827     Biso  1.000000 C
   C4         1.0     0.271110      0.771100      0.700345     Biso  1.000000 C
   N1         1.0     0.682682      0.182683      0.247319     Biso  1.000000 N
   N2         1.0     0.179297      0.863167      0.253544     Biso  1.000000 N
   N3         1.0     0.682682      0.182683      0.752680     Biso  1.000000 N
   N4         1.0     0.179299      0.863163      0.746455     Biso  1.000000 N
   N5         1.0     0.866572      0.366573      0.247211     Biso  1.000000 N
   N6         1.0     0.363165      0.679299      0.253545     Biso  1.000000 N
   N7         1.0     0.866572      0.366573      0.752789     Biso  1.000000 N
   N8         1.0     0.363167      0.679295      0.746456     Biso  1.000000 N
   H1         1.0     0.878560      0.378560      0.327198     Biso  1.000000 H
   H2         1.0     0.375382      0.667682      0.173532     Biso  1.000000 H
   H3         1.0     0.878560      0.378560      0.672802     Biso  1.000000 H
   H4         1.0     0.375381      0.667682      0.826464     Biso  1.000000 H
   H5         1.0     0.931995      0.431996      0.200051     Biso  1.000000 H
   H6         1.0     0.428552      0.613715      0.300624     Biso  1.000000 H
   H7         1.0     0.931994      0.431995      0.799948     Biso  1.000000 H
   H8         1.0     0.428549      0.613719      0.699378     Biso  1.000000 H
   H9         1.0     0.670768      0.170768      0.327328     Biso  1.000000 H
   H10        1.0     0.167684      0.875380      0.173536     Biso  1.000000 H
   H11        1.0     0.670767      0.170768      0.672671     Biso  1.000000 H
   H12        1.0     0.167683      0.875380      0.826468     Biso  1.000000 H
   H13        1.0     0.617185      0.117186      0.200241     Biso  1.000000 H
   H14        1.0     0.113721      0.928547      0.300622     Biso  1.000000 H
   H15        1.0     0.617185      0.117186      0.799758     Biso  1.000000 H
   H16        1.0     0.113717      0.928551      0.699377     Biso  1.000000 H
   H17        1.0     0.774571      0.274573      0.114815     Biso  1.000000 H
   H18        1.0     0.270788      0.770786      0.386002     Biso  1.000000 H
   H19        1.0     0.774571      0.274573      0.885185     Biso  1.000000 H
   H20        1.0     0.270787      0.770786      0.613998     Biso  1.000000 H
   Pb1        1.0     0.273031      0.272195      0.500000     Biso  1.000000 Pb
   Pb2        1.0     0.273343      0.272693      0.000000     Biso  1.000000 Pb
   Pb3        1.0     0.772197      0.773028      0.500000     Biso  1.000000 Pb
   Pb4        1.0     0.772693      0.773342      0.000000     Biso  1.000000 Pb
   I1         1.0     0.547361      0.047360      0.500000     Biso  1.000000 I
   I2         1.0     0.001238      0.501237      0.500000     Biso  1.000000 I
   I3         1.0     0.506976      0.538289      0.500000     Biso  1.000000 I
   I4         1.0     0.038290      0.006975      0.500000     Biso  1.000000 I
   I5         1.0     0.542015      0.042014      1.000000     Biso  1.000000 I
   I6         1.0     0.007342      0.507342      1.000000     Biso  1.000000 I
   I7         1.0     0.498268      0.548074      0.000000     Biso  1.000000 I
   I8         1.0     0.048074      0.998267      1.000000     Biso  1.000000 I
   I9         1.0     0.273658      0.271390      0.750003     Biso  1.000000 I
   I10        1.0     0.273658      0.271391      0.249997     Biso  1.000000 I
   I11        1.0     0.771392      0.773658      0.750003     Biso  1.000000 I
   I12        1.0     0.771390      0.773658      0.249997     Biso  1.000000 I
