data_created_by_vaspkit_code
_audit_creation_date          Thu Jan 31 10:49:28 2019
_pd_phase_name                     'CIF files'
_cell_length_a                     3.19040638
_cell_length_b                     3.19040638
_cell_length_c                    17.65853557
_cell_angle_alpha                     90.0000
_cell_angle_beta                      90.0000
_cell_angle_gamma                    120.0000
_symmetry_space_group_name_H-M           'P 1'
_symmetry_Int_Tables_number            1
loop_
_symmetry_equiv_pos_as_xyz
    'x, y, z'
loop_
   _atom_site_label
   _atom_site_occupancy
   _atom_site_fract_x
   _atom_site_fract_y
   _atom_site_fract_z
   _atom_site_thermal_displace_type
   _atom_site_U_iso_or_equiv
   _atom_site_type_symbol
   Mo001  1.0    0.333333    0.666667    0.500000  Uiso   1.00  Mo
    S001  1.0    0.666667    0.333333    0.411700  Uiso   1.00   S
    S002  1.0    0.666667    0.333333    0.588300  Uiso   1.00   S
