data_none

_audit_creation_method generated by ABACUS

_cell_length_a 2.45647
_cell_length_b 2.45647
_cell_length_c 12
_cell_angle_alpha 90
_cell_angle_beta 90
_cell_angle_gamma 120

loop_
_atom_site_label
_atom_site_fract_x
_atom_site_fract_y
_atom_site_fract_z
C 0.666667 0.333333 0.5
C 0.333333 0.666667 0.5
