data_none

_audit_creation_method generated by ABACUS

_cell_length_a 3.52689
_cell_length_b 3.52689
_cell_length_c 3.52689
_cell_angle_alpha 90
_cell_angle_beta 90
_cell_angle_gamma 90

loop_
_atom_site_label
_atom_site_fract_x
_atom_site_fract_y
_atom_site_fract_z
C 0.25 0.25 0.25
C 0 0 0
C 0.25 0.75 0.75
C 0 0.5 0.5
C 0.75 0.25 0.75
C 0.5 0 0.5
C 0.75 0.75 0.25
C 0.5 0.5 0
